Version 4
SHEET 1 1520 680
WIRE 432 -80 304 -80
WIRE 480 -80 432 -80
WIRE 784 -80 736 -80
WIRE 944 -80 784 -80
WIRE 784 -64 784 -80
WIRE 160 16 32 16
WIRE 304 16 304 -80
WIRE 304 16 224 16
WIRE 784 16 784 0
WIRE 784 16 736 16
WIRE 944 16 944 -80
WIRE 944 16 832 16
WIRE 1072 16 944 16
WIRE 1232 16 1072 16
WIRE 1440 16 1232 16
WIRE 32 64 32 16
WIRE 304 64 304 16
WIRE 944 64 944 16
WIRE 1072 64 1072 16
WIRE 1232 64 1232 16
WIRE 432 112 432 -80
WIRE 480 112 432 112
WIRE 832 112 832 96
WIRE 832 112 736 112
WIRE 1440 176 1440 16
WIRE 32 208 32 144
WIRE 32 208 -32 208
WIRE 304 208 304 128
WIRE 304 208 32 208
WIRE 832 208 832 192
WIRE 832 208 736 208
WIRE 944 208 944 128
WIRE 944 208 832 208
WIRE 1072 208 1072 128
WIRE 1072 208 944 208
WIRE 1232 208 1232 144
WIRE 1232 208 1072 208
WIRE 1328 208 1232 208
WIRE 832 224 832 208
WIRE -32 240 -32 208
WIRE 1328 256 1328 208
WIRE 32 272 32 208
WIRE 304 288 304 208
WIRE 944 288 944 208
WIRE 1072 288 1072 208
WIRE 1232 288 1232 208
WIRE 432 304 432 112
WIRE 480 304 432 304
WIRE 832 304 736 304
WIRE 832 320 832 304
WIRE 784 400 736 400
WIRE 32 416 32 352
WIRE 160 416 32 416
WIRE 304 416 304 352
WIRE 304 416 224 416
WIRE 784 416 784 400
WIRE 832 416 832 400
WIRE 944 416 944 352
WIRE 944 416 832 416
WIRE 1072 416 1072 352
WIRE 1072 416 944 416
WIRE 1232 416 1232 368
WIRE 1232 416 1072 416
WIRE 1440 416 1440 240
WIRE 1440 416 1232 416
WIRE 304 496 304 416
WIRE 480 496 304 496
WIRE 784 496 784 480
WIRE 784 496 736 496
WIRE 944 496 944 416
WIRE 944 496 784 496
FLAG -32 240 0
FLAG 1328 256 0
SYMBOL voltage 32 48 R0
WINDOW 123 0 0 Left 2
WINDOW 39 0 0 Left 2
SYMATTR InstName V1
SYMATTR Value PULSE(0 18 .017 .007 .007 .003 .017)
SYMBOL diode 160 32 R270
WINDOW 0 32 32 VTop 2
WINDOW 3 0 32 VBottom 2
SYMATTR InstName D1
SYMATTR Value MUR460
SYMBOL diode 224 432 M270
WINDOW 0 32 32 VTop 2
WINDOW 3 0 32 VBottom 2
SYMATTR InstName D2
SYMATTR Value MUR460
SYMBOL cap 288 64 R0
SYMATTR InstName C1
SYMATTR Value 1000µ
SYMBOL PowerProducts\\LT3032 608 208 R0
SYMATTR InstName U1
SYMBOL cap 768 -64 R0
SYMATTR InstName C9
SYMATTR Value .01µ
SYMBOL cap 768 416 R0
SYMATTR InstName C10
SYMATTR Value .01µ
SYMBOL res 1216 48 R0
SYMATTR InstName R1
SYMATTR Value 108
SYMBOL res 1216 272 R0
SYMATTR InstName R2
SYMATTR Value 108
SYMBOL res 848 0 M0
SYMATTR InstName R3
SYMATTR Value 110k
SYMBOL res 848 96 M0
SYMATTR InstName R4
SYMATTR Value 9.8k
SYMBOL res 848 304 M0
SYMATTR InstName R5
SYMATTR Value 110k
SYMBOL res 848 208 M0
SYMATTR InstName R6
SYMATTR Value 9.8k
SYMBOL cap 288 288 R0
SYMATTR InstName C2
SYMATTR Value 1000µ
SYMBOL cap 928 64 R0
SYMATTR InstName C3
SYMATTR Value 1000µ
SYMBOL cap 928 288 R0
SYMATTR InstName C4
SYMATTR Value 1000µ
SYMBOL cap 1056 64 R0
SYMATTR InstName C5
SYMATTR Value 0.22µ
SYMBOL cap 1056 288 R0
SYMATTR InstName C6
SYMATTR Value 0.22µ
SYMBOL cap 1424 176 R0
SYMATTR InstName C7
SYMATTR Value 0.22µ
SYMBOL voltage 32 368 R180
WINDOW 123 0 0 Left 2
WINDOW 39 0 0 Left 2
SYMATTR InstName V2
SYMATTR Value PULSE(0 18 .017 .007 .007 .003 .017)
TEXT -168 600 Left 2 !.tran 0 1 0 .001
