Version 4
SHEET 1 1524 2944
WIRE 240 16 160 16
WIRE 352 16 304 16
WIRE 448 16 352 16
WIRE 720 16 656 16
WIRE 1024 16 720 16
WIRE 352 48 352 16
WIRE 720 48 720 16
WIRE 1024 48 1024 16
WIRE 160 128 160 16
WIRE 352 144 352 112
WIRE 544 144 544 80
WIRE 720 144 720 112
WIRE 1024 144 1024 128
WIRE 160 256 160 208
FLAG 544 144 0
FLAG 160 256 0
FLAG 352 144 0
FLAG 720 144 0
FLAG 1024 144 0
SYMBOL diode 240 32 R270
WINDOW 0 32 32 VTop 2
WINDOW 3 0 32 VBottom 2
SYMATTR InstName D1
SYMATTR Value 1n4007
SYMBOL voltage 160 112 R0
WINDOW 123 0 0 Left 2
WINDOW 39 0 0 Left 2
SYMATTR InstName V1
SYMATTR Value SINE(0 26 60)
SYMBOL cap 336 48 R0
SYMATTR InstName C1
SYMATTR Value 220µ
SYMBOL cap 704 48 R0
SYMATTR InstName C2
SYMATTR Value 220µ
SYMBOL MC78XX 544 48 R0
WINDOW 0 8 -40 Invisible 2
SYMATTR InstName U1
SYMBOL current 1024 48 R0
WINDOW 123 0 0 Left 2
WINDOW 39 0 0 Left 2
SYMATTR InstName I1
SYMATTR Value 3m
TEXT 112 416 Left 2 !.tran 0 0.5 0.4 .001
TEXT 176 -128 Left 1 !.MODEL 1n4007 d\n+IS=7.02767e-09 RS=0.0341512 N=1.80803 EG=1.05743\n+XTI=5 BV=1000 IBV=5e-08 CJO=1e-11\n+VJ=0.7 M=0.5 FC=0.5 TT=1e-07\n+KF=0 AF=1
TEXT 112 392 Left 2 !.inc MC78XX.lib
TEXT 104 296 Left 2 ;26 volts peak = 18.4 Vrms. \napprox what the 16V supply measures under small load.
