Version 4
SHEET 1 880 724
WIRE -688 48 -896 48
WIRE -560 48 -688 48
WIRE -528 48 -560 48
WIRE -432 48 -464 48
WIRE -288 48 -432 48
WIRE -192 48 -288 48
WIRE -48 64 -128 64
WIRE 64 64 -48 64
WIRE 224 64 64 64
WIRE 400 64 288 64
WIRE 464 64 400 64
WIRE 624 64 544 64
WIRE 720 64 624 64
WIRE -192 80 -208 80
WIRE 64 96 64 64
WIRE -688 128 -688 48
WIRE -432 128 -432 48
WIRE -288 128 -288 48
WIRE -48 128 -48 64
WIRE -560 144 -560 48
WIRE 400 144 400 64
WIRE -896 160 -896 48
WIRE 624 160 624 64
WIRE 64 208 64 160
WIRE 176 208 64 208
WIRE 64 224 64 208
WIRE 176 240 176 208
WIRE -896 272 -896 240
WIRE -688 320 -688 208
WIRE -560 320 -560 208
WIRE -560 320 -688 320
WIRE -496 320 -560 320
WIRE -432 320 -432 208
WIRE -432 320 -496 320
WIRE -288 320 -288 208
WIRE -288 320 -432 320
WIRE -208 320 -208 80
WIRE -80 320 -208 320
WIRE -48 320 -48 208
WIRE -48 320 -80 320
WIRE 64 320 64 304
WIRE 64 320 -48 320
WIRE 176 320 176 304
WIRE 176 320 64 320
WIRE 400 320 400 224
WIRE 512 320 400 320
WIRE 624 320 624 224
WIRE 624 320 512 320
WIRE -496 352 -496 320
WIRE 512 352 512 320
WIRE -80 368 -80 320
WIRE -80 464 -80 448
WIRE -80 560 -80 528
FLAG -896 272 0
FLAG -80 560 0
FLAG 512 352 0
FLAG 720 64 out
FLAG -496 352 0
FLAG -896 48 in
SYMBOL voltage -896 144 R0
WINDOW 3 24 44 Invisible 2
WINDOW 123 24 72 Left 2
WINDOW 39 0 0 Left 2
SYMATTR Value SINE(0.3m 0 1k)
SYMATTR Value2 AC 0.707
SYMATTR InstName V1
SYMBOL cap -576 208 M180
WINDOW 0 24 56 Left 2
WINDOW 3 24 8 Left 2
SYMATTR InstName C1
SYMATTR Value 150p
SYMBOL res -448 112 R0
SYMATTR InstName R2
SYMATTR Value 100k
SYMBOL res -64 112 R0
SYMATTR InstName R3
SYMATTR Value 68k
SYMBOL res 48 208 R0
SYMATTR InstName R4
SYMATTR Value 6.8k
SYMBOL cap 48 96 R0
SYMATTR InstName C3
SYMATTR Value .047µ
SYMBOL cap 160 240 R0
SYMATTR InstName C4
SYMATTR Value .01µ
SYMBOL res -96 352 R0
SYMATTR InstName R5
SYMATTR Value 220
SYMBOL res 384 128 R0
SYMATTR InstName R6
SYMATTR Value 100k
SYMBOL res 560 48 R90
WINDOW 0 0 56 VBottom 2
WINDOW 3 32 56 VTop 2
SYMATTR InstName R7
SYMATTR Value 500
SYMBOL cap 608 160 R0
SYMATTR InstName C6
SYMATTR Value 3.3n
SYMBOL Opamps\\opamp -160 128 M180
SYMATTR InstName U1
SYMBOL res -704 112 R0
SYMATTR InstName R1
SYMATTR Value 100k
SYMBOL cap -464 32 R90
WINDOW 0 0 32 VBottom 2
WINDOW 3 32 32 VTop 2
SYMATTR InstName C2
SYMATTR Value 2.2µ
SYMBOL cap 288 48 R90
WINDOW 0 0 32 VBottom 2
WINDOW 3 32 32 VTop 2
SYMATTR InstName C5
SYMATTR Value 2.2µ
SYMBOL current -288 128 R0
WINDOW 0 32 40 VTop 2
WINDOW 3 -32 40 VBottom 2
WINDOW 123 0 0 Left 2
WINDOW 39 0 0 Left 2
SYMATTR InstName I2
SYMATTR Value 200n
SYMBOL cap -96 464 R0
SYMATTR InstName C7
SYMATTR Value 150µ
TEXT -592 568 Left 2 !.lib opamp.sub
TEXT -592 440 Left 2 ;.step param X list 3n 3.3n
TEXT -592 504 Left 2 !.ac lin 8192 5.38 44100.0
TEXT 160 408 Left 2 ;R4 * C4 = 75 usec
TEXT 160 456 Left 2 ;C3 * R4 = 318 usec
TEXT 160 504 Left 2 ;R3 * C3 = 3180 uSec
